*SPEF "ieee 1481-1999"
*DESIGN "inverter"
*DATE "11:11:11 Fri 11 11, 1111"
*VENDOR "OpenRCX"
*PROGRAM "Parallel Extraction"
*VERSION "1.0"
*DESIGN_FLOW "NAME_SCOPE LOCAL" "PIN_CAP NONE"
*DIVIDER /
*DELIMITER :
*BUS_DELIMITER []
*T_UNIT 1 NS
*C_UNIT 1 PF
*R_UNIT 1 OHM
*L_UNIT 1 HENRY

*NAME_MAP
*3 in
*4 out
*5 net1
*6 net2
*7 FILLER_0_21
*8 FILLER_0_27
*9 FILLER_0_29
*10 FILLER_0_3
*11 FILLER_0_41
*12 FILLER_0_47
*13 FILLER_0_9
*14 FILLER_10_20
*15 FILLER_10_29
*16 FILLER_10_3
*17 FILLER_10_41
*18 FILLER_10_47
*19 FILLER_10_8
*20 FILLER_11_15
*21 FILLER_11_27
*22 FILLER_11_3
*23 FILLER_11_39
*24 FILLER_11_47
*25 FILLER_12_15
*26 FILLER_12_27
*27 FILLER_12_29
*28 FILLER_12_3
*29 FILLER_12_41
*30 FILLER_12_46
*31 FILLER_1_15
*32 FILLER_1_27
*33 FILLER_1_3
*34 FILLER_1_39
*35 FILLER_1_47
*36 FILLER_2_15
*37 FILLER_2_27
*38 FILLER_2_29
*39 FILLER_2_3
*40 FILLER_2_41
*41 FILLER_2_47
*42 FILLER_3_15
*43 FILLER_3_27
*44 FILLER_3_3
*45 FILLER_3_39
*46 FILLER_3_47
*47 FILLER_4_15
*48 FILLER_4_27
*49 FILLER_4_29
*50 FILLER_4_3
*51 FILLER_4_41
*52 FILLER_4_47
*53 FILLER_5_15
*54 FILLER_5_27
*55 FILLER_5_3
*56 FILLER_5_39
*57 FILLER_5_47
*58 FILLER_6_15
*59 FILLER_6_27
*60 FILLER_6_29
*61 FILLER_6_3
*62 FILLER_6_41
*63 FILLER_6_47
*64 FILLER_7_15
*65 FILLER_7_27
*66 FILLER_7_3
*67 FILLER_7_39
*68 FILLER_7_47
*69 FILLER_8_15
*70 FILLER_8_27
*71 FILLER_8_29
*72 FILLER_8_3
*73 FILLER_8_41
*74 FILLER_8_47
*75 FILLER_9_15
*76 FILLER_9_27
*77 FILLER_9_3
*78 FILLER_9_39
*79 FILLER_9_47
*80 PHY_0
*81 PHY_1
*82 PHY_10
*83 PHY_11
*84 PHY_12
*85 PHY_13
*86 PHY_14
*87 PHY_15
*88 PHY_16
*89 PHY_17
*90 PHY_18
*91 PHY_19
*92 PHY_2
*93 PHY_20
*94 PHY_21
*95 PHY_22
*96 PHY_23
*97 PHY_24
*98 PHY_25
*99 PHY_3
*100 PHY_4
*101 PHY_5
*102 PHY_6
*103 PHY_7
*104 PHY_8
*105 PHY_9
*106 TAP_26
*107 TAP_27
*108 TAP_28
*109 TAP_29
*110 TAP_30
*111 TAP_31
*112 TAP_32
*113 _0_
*114 input1
*115 output2

*PORTS
in I
out O

*D_NET *3 0.00151244
*CONN
*P in I
*I *114:A I *D sky130_fd_sc_hd__clkbuf_1
*CAP
1 in 0.000756218
2 *114:A 0
3 *3:11 0.000756218
*RES
1 in *3:11 45.5357 
2 *3:11 *114:A 38 
*END

*D_NET *4 0.00173198
*CONN
*P out O
*I *115:X O *D sky130_fd_sc_hd__buf_2
*CAP
1 out 0.00035738
2 *115:X 0.000508611
3 *4:7 0.000865991
*RES
1 *115:X *4:7 46.7207 
2 *4:7 out 7.99571 
*END

*D_NET *5 0.0024811
*CONN
*I *113:A I *D sky130_fd_sc_hd__inv_2
*I *114:X O *D sky130_fd_sc_hd__clkbuf_1
*CAP
1 *113:A 0
2 *114:X 0.000269791
3 *5:9 0.000956071
4 *5:6 0.00122586
5 *5:9 *6:7 2.93747e-05
*RES
1 *114:X *5:6 43.075 
2 *5:6 *5:9 32.2964 
3 *5:9 *113:A 23 
*END

*D_NET *6 0.00306119
*CONN
*I *115:A I *D sky130_fd_sc_hd__buf_2
*I *113:Y O *D sky130_fd_sc_hd__inv_2
*CAP
1 *115:A 0
2 *113:Y 8.1128e-05
3 *6:10 0.00143478
4 *6:7 0.00151591
5 *5:9 *6:7 2.93747e-05
*RES
1 *113:Y *6:7 39.0979 
2 *6:7 *6:10 42.6121 
3 *6:10 *115:A 23 
*END
